data_script                   
_audit_creation_metho         'xsd2cif.py'        
_cell_length_a                5.84468
_cell_length_b                6.31938
_cell_length_c                21.92922
_cell_angle_alpha             90.00
_cell_angle_beta              90.00
_cell_angle_gamma             90.00
_symmetry_space_group_H-M     P1        
_symmetry_Int_Tables_number   1         
_symmetry_cell_setting        triclinic 
loop_
_symmetry_equiv_pos_as_xyz
x,y,z
loop_
_atom_site_label
_atom_site_type_symbol
_atom_site_occupancy
_atom_site_fract_x
_atom_site_fract_y
_atom_site_fract_z
_atom_site_U_iso_or_equiv
O1        O         1.0       0.13081             0.5697              0                   0.0       
O2        O         1.0       0.63081             0.5697              0                   0.0       
O3        O         1.0       0.38081             0.26356             0.05586             0.0       
O4        O         1.0       0.880809999999999   0.26356             0.05586             0.0       
O5        O         1.0       0.38081             0.87584             0.05586             0.0       
O6        O         1.0       0.880809999999999   0.87584             0.05586             0.0       
O7        O         1.0       0.13081             0.5697              0.11173             0.0       
O8        O         1.0       0.63081             0.5697              0.11173             0.0       
O9        O         1.0       0.13081             0.0697              0.14409             0.0       
O10       O         1.0       0.63081             0.0697              0.14409             0.0       
O11       O         1.0       0.38081             0.37584             0.19995             0.0       
O12       O         1.0       0.880809999999999   0.37584             0.19995             0.0       
O13       O         1.0       0.38081             0.76356             0.19995             0.0       
O14       O         1.0       0.880809999999999   0.76356             0.19995             0.0       
O15       O         1.0       0.13081             0.0697              0.25582             0.0       
O16       O         1.0       0.63081             0.0697              0.25582             0.0       
O17       O         1.0       0.1308              0.56966             0.28744             0.0       
O18       O         1.0       0.6308              0.56966             0.28744             0.0       
O19       O         1.0       0.38077             0.26586             0.34398             0.0       
O20       O         1.0       0.880769999999999   0.26586             0.34398             0.0       
O21       O         1.0       0.38079             0.8733              0.34398             0.0       
O22       O         1.0       0.88079             0.8733              0.34398             0.0       
O23       O         1.0       0.13074             0.56969             0.39852             0.0       
O24       O         1.0       0.63074             0.56969             0.39852             0.0       
O25       O         1.0       0.13074             0.0698              0.43377             0.0       
O26       O         1.0       0.63074             0.0698              0.43377             0.0       
O27       O         1.0       0.38071             0.38409             0.49564             0.0       
O28       O         1.0       0.880709999999999   0.38409             0.49564             0.0       
O29       O         1.0       0.38076             0.75562             0.4956              0.0       
O30       O         1.0       0.880759999999999   0.75562             0.4956              0.0       
O31       O         1.0       0.13074             0.06992             0.54743             0.0       
O32       O         1.0       0.63074             0.06992             0.54743             0.0       
Ge1       Ge        1.0       0.13081             0.0697              0.05586             0.0       
Ge2       Ge        1.0       0.630809999999999   0.0697              0.05586             0.0       
Ge3       Ge        1.0       0.38081             0.5697              0.05586             0.0       
Ge4       Ge        1.0       0.880809999999999   0.5697              0.05586             0.0       
Ge5       Ge        1.0       0.38081             0.0697              0.19995             0.0       
Ge6       Ge        1.0       0.880809999999999   0.0697              0.19995             0.0       
Ge7       Ge        1.0       0.13081             0.5697              0.19995             0.0       
Ge8       Ge        1.0       0.630809999999999   0.5697              0.19995             0.0       
Ge9       Ge        1.0       0.13078             0.06958             0.34694             0.0       
Ge10      Ge        1.0       0.630779999999999   0.06958             0.34694             0.0       
Ge11      Ge        1.0       0.38078             0.56956             0.3414              0.0       
Ge12      Ge        1.0       0.880779999999999   0.56956             0.3414              0.0       
Ge13      Ge        1.0       0.38073             0.06981             0.49695             0.0       
Ge14      Ge        1.0       0.880729999999999   0.06981             0.49695             0.0       
Ge15      Ge        1.0       0.13076             0.56981             0.48228             0.0       
Ge16_s    Ge        1.0       0.630759999999999   0.56981             0.48228             0.0       
H1        H         1.0       0.472771493194      0.650404498975      0.541258548648      0.0       
H2        H         1.0       0.778414309421      0.658784080149      0.544934127043      0.0       
H4        H         1.0       0.632739325025      0.409939785585      0.547239033348      0.0       
C1_ab     C         1.0       0.63094000483       0.569719997585      0.527881223664      0.0       
